           5
ENERGY = 0.0                                                                   
  C       -0.000003     0.000000    -0.000003
  H        1.111639     0.000000    -0.000003
  H       -0.370529     1.048052    -0.000003
  H       -0.370559    -0.524045    -0.907631
  H       -0.370532    -0.524007     0.907659
