           8
ENERGY = 0.0                                                                   
  C        0.269747     0.370902    -0.595646
  H        1.386678     0.370902    -0.595646
  H       -0.073180     1.433897    -0.595646
  H       -0.072168    -0.099373    -1.549437
  C       -0.269784    -0.370807     0.595692
  H       -0.889295     0.299999     1.238952
  H       -0.911095    -1.228155     0.277520
  H        0.559298    -0.777750     1.223884
