          11
ENERGY = 0.0                                                                   
  C        0.189005     0.974891    -0.799564
  H        1.305926     0.974891    -0.799564
  H       -0.163803     2.034311    -0.799564
  H       -0.160302     0.486581    -1.741382
  C       -0.342206     0.243476     0.406460
  H       -0.001899     0.764986     1.340178
  H       -1.464028     0.277977     0.400860
  C        0.116103    -1.191952     0.437161
  H       -0.235004    -1.736862    -0.472357
  H        1.231125    -1.248553     0.469561
  H       -0.289805    -1.711562     1.338378
