          14
ENERGY = 0.0                                                                   
  C        0.251310     0.340042     0.628067
  H        1.373472     0.340042     0.628067
  H       -0.077989     1.412779     0.628067
  C       -0.251371    -0.340061    -0.628092
  H        0.077848    -1.412833    -0.628152
  H       -1.373523    -0.340030    -0.628152
  C        0.255234     0.345336    -1.870582
  H        1.371705     0.333306    -1.900321
  H       -0.127316    -0.172013    -2.783286
  H       -0.083563     1.409233    -1.900179
  C       -0.255177    -0.345320     1.870613
  H        0.083152    -1.409362     1.899997
  H        0.127890     0.171728     2.783257
  H       -1.371655    -0.332829     1.900662
